@<TRIPOS>MOLECULE
generated by VMD
    9    0    1    0    0
SMALL
NO_CHARGES
****
Energy = 0

@<TRIPOS>ATOM
      1  C1         0.0140    0.0000    5.0000   C1    1  H2OA        0.000000
      2  C2        -1.0260    0.2000    7.0000   C2    1  H2OA        0.000000
      3  H1        -0.5660    0.2600    6.0000   H1    1  H2OA        0.000000
      4  H2        -1.6890   -0.6700    6.0000   H2    1  H2OA        0.000000
      5  H3        -1.6200    1.0900    8.0000   H3    1  H2OA        0.000000
      6  O1        -0.2290    0.4300    1.0000   O1    1  H2OA        0.000000
      7  O2         1.0930   -0.6000    3.0000   O2    1  H2OA        0.000000
      8  H          1.7440   -0.7400    3.0000    H    1  H2OA        0.000000
      9  HO1        0.4730    0.2500    1.0000  HO1    1  H2OA        0.000000

@<TRIPOS>SUBSTRUCTURE
1 ****        1 TEMP                        0 ****  **** 0 ROOT
